[TITLE]
;;Project Title/Notes
GDRSS SWMM Model
Last Updated by CDM Smith Inc 12/1/2012
4/30/2018 SCT: Most ISD max underflows reduced to 10;
conduit 2143 inlet offset changed from 0 to 35 ft to direct flows from ISD006 to DRI instead of NIEA
5/9/2018 SCT: consolidated down all conduit/junction lines to single conduits;
deleted all underflows
5/22/2018 SCT: changed all ISD orifices to rectangular (square dimensions)
6/19/2018 SCT: introduced TSS as a pollutant; build-up and wash-off functions from Gaborit et al. (2013)
6/22/2018 SCT: introduced exponential settling at every node immediately downstream of storage conduit; no resuspension
6/25/2018 SCT: included a term for resuspension of TSS at every node immediately downstream of storage conduit; exponential term using flow, rough conversion between flow and velocity, and scaling to make maximum velocity lead to -75% removal
7/18/2018 SCT: added nodes for adding dry-weather inflows
7/26/2018 SCT: changed several storages above ISDs to junctions

[OPTIONS]
;;Option             Value
FLOW_UNITS           CFS
INFILTRATION         HORTON
FLOW_ROUTING         DYNWAVE
LINK_OFFSETS         DEPTH
MIN_SLOPE            0
ALLOW_PONDING        NO
SKIP_STEADY_STATE    NO

IGNORE_SNOWMELT      YES
IGNORE_GROUNDWATER   YES
START_DATE           04/14/2010
START_TIME           00:00:00
REPORT_START_DATE    04/14/2010
REPORT_START_TIME    00:00:00
END_DATE             04/20/2010
END_TIME             00:00:00
SWEEP_START          01/01
SWEEP_END            12/31
DRY_DAYS             0.000000
REPORT_STEP          00:15:00
WET_STEP             00:01:00
DRY_STEP             00:01:00
ROUTING_STEP         0:00:10 

INERTIAL_DAMPING     PARTIAL
NORMAL_FLOW_LIMITED  SLOPE
FORCE_MAIN_EQUATION  H-W
VARIABLE_STEP        0.75
LENGTHENING_STEP     5
MIN_SURFAREA         12.566000
MAX_TRIALS           8
HEAD_TOLERANCE       0.005
SYS_FLOW_TOL         5
LAT_FLOW_TOL         5
MINIMUM_STEP         0.5
THREADS              1

[EVAPORATION]
;;Data Source    Parameters
;;-------------- ----------------
CONSTANT         0.000000
DRY_ONLY         NO

[RAINGAGES]
;;Name           Format    Interval SCF      Source    
;;-------------- --------- ------ ------ ----------
CHS5             CUMULATIVE 0.250000 1.000000 TIMESERIES MAY2015         
CTS1             CUMULATIVE 0.250000 1.000000 TIMESERIES MAY2015         
CTS2             CUMULATIVE 0.250000 1.000000 TIMESERIES MAY2015         
CTS3             CUMULATIVE 0.250000 1.000000 TIMESERIES MAY2015         
CTS4             CUMULATIVE 0.250000 1.000000 TIMESERIES MAY2015         
CTUMA            CUMULATIVE 0.250000 1.000000 TIMESERIES MAY2015         
FRS1             CUMULATIVE 0.250000 1.000000 TIMESERIES MAY2015         
HRS1             CUMULATIVE 0.250000 1.000000 TIMESERIES MAY2015         
HRS2             CUMULATIVE 0.250000 1.000000 TIMESERIES MAY2015         
MAS2             CUMULATIVE 0.250000 1.000000 TIMESERIES MAY2015         
PG01             CUMULATIVE 0.250000 1.000000 TIMESERIES MAY2015         
PG02             CUMULATIVE 0.250000 1.000000 TIMESERIES 20160928_PG027  
PG027            CUMULATIVE 0.250000 1.000000 TIMESERIES MAY2015         
PG028            CUMULATIVE 0.250000 1.000000 TIMESERIES MAY2015         
PG03             CUMULATIVE 0.250000 1.000000 TIMESERIES 20170504_PG003  
PG04             CUMULATIVE 0.250000 1.000000 TIMESERIES MAY2015         
PG05             CUMULATIVE 0.250000 1.000000 TIMESERIES MAY2015         
PG06             CUMULATIVE 0.250000 1.000000 TIMESERIES MAY2015         
PG07             CUMULATIVE 0.250000 1.000000 TIMESERIES MAY2015         
PG08             CUMULATIVE 0.250000 1.000000 TIMESERIES 20170504_PG008  
PG09             CUMULATIVE 0.250000 1.000000 TIMESERIES MAY2015         
PG10             CUMULATIVE 0.250000 1.000000 TIMESERIES MAY2015         
PG11             CUMULATIVE 0.250000 1.000000 TIMESERIES MAY2015         
PG12             CUMULATIVE 0.250000 1.000000 TIMESERIES MAY2015         
PG13             CUMULATIVE 0.250000 1.000000 TIMESERIES MAY2015         
PG14             CUMULATIVE 0.250000 1.000000 TIMESERIES MAY2015         
PG15             CUMULATIVE 0.250000 1.000000 TIMESERIES 20170504_PG002  
PG16             CUMULATIVE 0.250000 1.000000 TIMESERIES MAY2015         
PG17             CUMULATIVE 0.250000 1.000000 TIMESERIES 20170504_PG003  
PG18             CUMULATIVE 0.250000 1.000000 TIMESERIES 20170504_PG018  
PG19             CUMULATIVE 0.250000 1.000000 TIMESERIES MAY2015         
PG20             CUMULATIVE 0.250000 1.000000 TIMESERIES MAY2015         
PG21             CUMULATIVE 0.250000 1.000000 TIMESERIES MAY2015         
PG22             CUMULATIVE 0.250000 1.000000 TIMESERIES MAY2015         
PG23             CUMULATIVE 0.250000 1.000000 TIMESERIES MAY2015         
PG24             CUMULATIVE 0.250000 1.000000 TIMESERIES 20170504_PG018  
PG25             CUMULATIVE 0.250000 1.000000 TIMESERIES MAY2015         
PG26             CUMULATIVE 0.250000 1.000000 TIMESERIES MAY2015         
PG29             CUMULATIVE 0.250000 1.000000 TIMESERIES MAY2015         
PG30             CUMULATIVE 0.250000 1.000000 TIMESERIES MAY2015         
PG31             CUMULATIVE 0.250000 1.000000 TIMESERIES MAY2015         
PG32             CUMULATIVE 0.250000 1.000000 TIMESERIES MAY2015         
PG33             CUMULATIVE 0.250000 1.000000 TIMESERIES MAY2015         
PG34             CUMULATIVE 0.250000 1.000000 TIMESERIES MAY2015         
STS1             CUMULATIVE 0.250000 1.000000 TIMESERIES MAY2015         
STS2             CUMULATIVE 0.250000 1.000000 TIMESERIES MAY2015         
STS3             CUMULATIVE 0.250000 1.000000 TIMESERIES MAY2015         
STS4             CUMULATIVE 0.250000 1.000000 TIMESERIES MAY2015         
STS5             CUMULATIVE 0.250000 1.000000 TIMESERIES MAY2015         
STS6             CUMULATIVE 0.250000 1.000000 TIMESERIES MAY2015         
SYS1             CUMULATIVE 0.250000 1.000000 TIMESERIES MAY2015         
SYS2             CUMULATIVE 0.250000 1.000000 TIMESERIES MAY2015         
SYS3             CUMULATIVE 0.250000 1.000000 TIMESERIES MAY2015         
UTS1             CUMULATIVE 0.250000 1.000000 TIMESERIES MAY2015         

[SUBCATCHMENTS]
;;Name           Rain Gage        Outlet           Area     %Imperv  Width    %Slope   CurbLen  SnowPack        
;;-------------- ---------------- ---------------- -------- -------- -------- -------- -------- ----------------
S1535            PG24             RC11535          1034     35       450410   1        0                        
S1545            PG24             RC11545          1155     40       503118   1        0                        
S1550            PG18             RC11550          291      38       126760   1        0                        
S1570            PG18             RC11570          1077     42       469141   1        0                        
S1571            PG03             RC11571          1797     45       782773   1        0                        
S1952            PG24             RC1951           1428     43       622037   1        0                        
S19520           PG15             RC19523          410      43       178596   1        0                        
S214500          PG02             RC3214500        173.2    75       75446    1        0                        
S2160            PG18             RC32160          479.6    41.1     208909   1        0                        
S2200            PG03             RC12200          1593     37       693911   1        0                        
S2201            PG03             RC12201          47       38       20473    1        0                        
S2315            PG08             RC12315          1074     50       467834   1        0                        
S2345            PG08             RC12345          766      41       333670   1        0                        
S2350            PG08             RC12350          1089     35       474368   1        0                        
S2355            PG03             RC12355          1651     35       719176   1        0                        
S2389            PG17             RC12389          800      40       348480   1        0                        
S2397            PG17             RC12397          456      40       198634   1        0                        
;CDM Rev 3/2012 Loading Node
S2520            PG03             RC12520          716      44       311890   1        0                        
;CDM Rev 3/2012 Loading Node
S2521            PG03             RC12521          62       39       27007    1        0                        
S2765            PG08             RC12765          432      46       188179   1        0                        
S2770            PG08             RC12770          97       40       42253    1        0                        

[SUBAREAS]
;;Subcatchment   N-Imperv   N-Perv     S-Imperv   S-Perv     PctZero    RouteTo    PctRouted 
;;-------------- ---------- ---------- ---------- ---------- ---------- ---------- ----------
S1535            0.014      0.2        0.06       0.29       25         PERVIOUS   0         
S1545            0.014      0.2        0.06       0.29       25         PERVIOUS   0         
S1550            0.014      0.2        0.06       0.29       25         PERVIOUS   0         
S1570            0.014      0.2        0.06       0.29       25         PERVIOUS   0         
S1571            0.014      0.2        0.06       0.29       25         PERVIOUS   0         
S1952            0.014      0.2        0.06       0.29       25         PERVIOUS   0         
S19520           0.014      0.2        0.06       0.29       25         PERVIOUS   0         
S214500          0.014      0.2        0.06       0.29       25         PERVIOUS   0         
S2160            0.014      0.2        0.06       0.29       25         PERVIOUS   0         
S2200            0.014      0.2        0.06       0.29       25         PERVIOUS   0         
S2201            0.014      0.2        0.06       0.29       25         PERVIOUS   0         
S2315            0.014      0.2        0.06       0.29       25         PERVIOUS   0         
S2345            0.014      0.2        0.06       0.29       25         PERVIOUS   0         
S2350            0.014      0.2        0.06       0.29       25         PERVIOUS   0         
S2355            0.014      0.2        0.06       0.29       25         PERVIOUS   0         
S2389            0.014      0.2        0.06       0.29       25         PERVIOUS   0         
S2397            0.014      0.2        0.06       0.29       25         PERVIOUS   0         
S2520            0.014      0.2        0.06       0.29       25         PERVIOUS   0         
S2521            0.014      0.2        0.06       0.29       25         PERVIOUS   0         
S2765            0.014      0.2        0.06       0.29       25         PERVIOUS   0         
S2770            0.014      0.2        0.06       0.29       25         PERVIOUS   0         

[INFILTRATION]
;;Subcatchment   MaxRate    MinRate    Decay      DryTime    MaxInfil  
;;-------------- ---------- ---------- ---------- ---------- ----------
S1535            2.9        0.2        4.68       0.018      0         
S1545            2.9        0.2        4.68       0.018      0         
S1550            2.9        0.2        4.68       0.018      0         
S1570            2.9        0.2        4.68       0.018      0         
S1571            2.9        0.2        4.68       0.018      0         
S1952            2.9        0.2        4.68       0.018      0         
S19520           2.9        0.2        4.68       0.018      0         
S214500          2.9        0.2        4.68       0.018      0         
S2160            2.9        0.2        4.68       0.018      0         
S2200            2.9        0.2        4.68       0.018      0         
S2201            2.9        0.2        4.68       0.018      0         
S2315            2.9        0.2        4.68       0.018      0         
S2345            2.9        0.2        4.68       0.018      0         
S2350            2.9        0.2        4.68       0.018      0         
S2355            2.9        0.2        4.68       0.018      0         
S2389            2.9        0.2        4.68       0.018      0         
S2397            2.9        0.2        4.68       0.018      0         
S2520            2.9        0.2        4.68       0.018      0         
S2521            2.9        0.2        4.68       0.018      0         
S2765            2.9        0.2        4.68       0.018      0         
S2770            2.9        0.2        4.68       0.018      0         

[JUNCTIONS]
;;Name           Elevation  MaxDepth   InitDepth  SurDepth   Aponded   
;;-------------- ---------- ---------- ---------- ---------- ----------
3                572.76     0          0          0          0         
4                569.76     0          0          0          0         
5                566.76     0          0          0          0         
1503             581.56     29.1       0          0          0         
1504             581.66     29         0          0          0         
1515             587.26     33.2       0          0          0         
1516             587.36     33.1       0          0          0         
1545             594.36     42.9       0          0          0         
1952             586.36     29.4       0          0          0         
2142             571.76     41         0          0          0         
;ASI rev 3-09 *ASI rev 3-09
2145             572.46     48         0          0          0         
2170             578.86     55         0          0          0         
2185             585.26     52.5       0          0          0         
2195             591.36     45.6       0          0          0         
2201             596.56     47.7       0          0          0         
;CDM Rev 3/2012 (23550 -> 2351 dup id)
2351             604.66     27         0          0          0         
2355             604.76     28.9       0          0          0         
2360             606.46     26.1       0          0          0         
2455             589.76     40         0          0          0         
2525             607.56     23.4       0          0          0         
2545             612.86     25         0          0          0         
2745             580.86     46.4       0          0          0         
2765             583.46     44.3       0          0          0         
2770             584.86     43         0          0          0         
2775             587.16     43.1       0          0          0         
15031            581.66     29         0          0          0         
15032            581.66     29         0          0          0         
15163            587.31     33.15      0          0          0         
15164            587.31     33.15      0          0          0         
19521            586.31     29.45      0          0          0         
19523            586.31     29.45      0          0          0         
21450            572.46     48         0          0          0         
21453            572.46     48         0          0          0         
21454            572.46     48         0          0          0         
21700            578.76     55.1       0          0          0         
21703            578.81     55.05      0          0          0         
21704            578.81     55.05      0          0          0         
21850            585.21     52.55      0          0          0         
21852            585.16     52.6       0          0          0         
21859            585.21     52.55      0          0          0         
21950            591.26     49.4       0          0          0         
21953            591.31     45.65      0          0          0         
21954            591.31     45.65      0          0          0         
22201            603.86     41.2       0          0          0         
22202            603.76     41.3       0          0          0         
22203            603.81     41.25      0          0          0         
22204            603.81     41.25      0          0          0         
23553            604.71     26.95      0          0          0         
23554            604.71     26.95      0          0          0         
25250            604.56     22.9       0          0          0         
25251            604.46     22.3       0          0          0         
25253            604.51     22.95      0          0          0         
25254            604.51     22.95      0          0          0         
27453            580.81     46.45      0          0          0         
27454            580.81     46.45      0          0          0         
RC11535          938.16     40         0          0          0         
RC11545          971.56     40         0          0          0         
RC11550          800.96     40         0          0          0         
RC11570          970.22     40         0          0          0         
RC11571          1086.56    40         0          0          0         
;added by WT 6/10 based on Plan Model and Baseline DCIA
RC12200          1052.56    40         0          0          0         
RC12201          759.16     40         0          0          0         
RC12315          979.53     40         0          0          0         
RC12345          913.56     40         0          0          0         
RC12350          1009.7     40         0          0          0         
RC12355          1091.05    40         0          0          0         
RC12389          989.46     40         0          0          0         
RC12397          877.36     40         0          0          0         
RC12520          907.67     40         0          0          0         
;WT changed parameter 9/01 on TM42.exe
RC12521          751.96     40         0          0          0         
RC12765          840.96     40         0          0          0         
RC12770          742.3      40         0          0          0         
;revised 7/14/00
RC1951           1014.14    40         0          0          0         
;revised 7/14/00
RC19523          823.08     40         0          0          0         
;revised by ASI 3/09
RC3214500        788.15     40         0          0          0         
RC32160          826.72     40         0          0          0         

[OUTFALLS]
;;Name           Elevation  Type       Stage Data       Gated    Route To        
;;-------------- ---------- ---------- ---------------- -------- ----------------
1                563.76     FREE                        NO                       

[STORAGE]
;;Name           Elev.    MaxDepth   InitDepth  Shape      Curve Name/Params            N/A      Fevap    Psi      Ksat     IMD     
;;-------------- -------- ---------- ----------- ---------- ---------------------------- -------- --------          -------- --------
1502             578.38   19.98      0          TABULAR    1502                         0        0       
1535             591.56   42.2       0          TABULAR    1535                         0        0       
1550             597.46   38.3       0          TABULAR    1550                         0        0       
1570             601.36   42.4       0          TABULAR    1570                         0        0       
19520            586.26   29.5       0          TABULAR    19520                        0        0       
2160             576.46   56.6       0          TABULAR    2160                         0        0       
2200             616.86   23.9       0          TABULAR    2200                         0        0       
2315             599.06   24.7       0          TABULAR    2315                         0        0       
2350             604.56   35.8       0          FUNCTIONAL 0         0         10000    0        0       
2389             620.36   26.5       0          TABULAR    2389                         0        0       
2740             580.36   46.9       0          TABULAR    2740                         0        0       
27450            580.76   46.5       0          TABULAR    27450                        0        0       

[CONDUITS]
;;Name           From Node        To Node          Length     Roughness  InOffset   OutOffset  InitFlow   MaxFlow   
;;-------------- ---------------- ---------------- ---------- ---------- ---------- ---------- ---------- ----------
;EQ COND 10/9/96
1503             1503             1502             1840       0.012      0          0          0          0         
;WEATHERBY BEG EQ.PIPE FOR 5CNTRD ARCH 13X18 A=176.283SQ.FT
;EQ COND 10/9/96
1509             19520            1504             3621       0.012      0          0          0          0         
1515             1515             19520            1200       .013       0          0          0          0         
1535             1535             1516             5443       .013       0          0          0          0         
1545             1545             1535             3628       .013       0          0          0          0         
1550             1550             1545             873        0.013      0          2.25       0          0         
1570             1570             1550             6262       .013       0          0          0          0         
2160             2160             2145             8078       .013       0          0          0          0         
2201             2201             2195             4252       .013       0          0          0          0         
;*C.C BET FIRST HAMILTON & 6 MILE
2202             2200             2201             230        0.047      0          9.76       0          0         
2219             22202            2201             4254       .013       0          0          0          0         
;* 7 MILE & CONNANT-MT.ELLIOT
2349             2350             2775             255        0.068      2          6          0          0         
2355             2351             2350             779        0.013      0          0          0          0         
2360             2360             2355             2881       0.013      0          0          0          0         
2388             2389             22201            2063       .013       0          0          0          0         
2425             2315             2455             9699       .013       0          0          0          0         
;*7 MILE RELIEF ENDS
2455             2455             2775             1352       0.013      0          2          0          0         
2525             2525             25250            4220       0.013      0          0          0          0         
2545             2545             2525             6754       .013       0          0          0          0         
2765             2765             2745             6555       .013       0          0          0          0         
2770             2770             2765             3050       0.013      0          0          0          0         
2775             2775             2770             5923       0.013      0          0          0          0         
21450            21450            2142             1907       0.013      0          0          0          0         
21700            21700            2160             4809       .013       0          0          0          0         
21853            21852            2170             5699       .013       0          0          0          0         
21950            21950            2185             5130       .013       0          0          0          0         
25253            25251            2770             555        .013       0          0          0          0         
27450            27450            2740             1190       0.013      0          0          0          0         
Branch02         1502             5                400        0.01       0          0          0          0         
Branch06         2142             4                400        0.01       0          0          0          0         
Branch11a        2740             3                400        0.01       0          0          0          0         
ISD002_damDOWN   15031            1503             500        0.01       0          0          0          0         
ISD002_damUP     15032            1503             500        0.01       0          0          0          0         
ISD003_damDOWN   19523            19520            400        0.011      0          0          0          0         
ISD003_damUP     19521            19520            400        0.01       0          0          0          0         
ISD004_damDOWN   15164            1515             400        0.01       0          0          0          0         
ISD004_damUP     15163            1515             400        0.011      0          0          0          0         
ISD006_damDOWN   21454            21450            400        0.01       0          0          0          0         
ISD006_damUP     21453            21450            400        0.011      0          0          0          0         
ISD007_damDOWN   21703            21700            400        0.011      0          0          0          0         
ISD007_damUP     21704            21700            400        0.01       0          0          0          0         
ISD008_damDOWN   21859            21852            400        0.011      0          0          0          0         
ISD008_damUP     21850            21852            195.18     0.01       0          0          0          0         
ISD009_damDOWN   21954            21950            762.78     0.01       0          0          0          0         
ISD009_damUP     21953            21950            400        0.011      0          0          0          0         
ISD010_damDOWN   22204            22202            214.34     0.01       0          0          0          0         
ISD010_damUP     22203            22202            400        0.011      0          0          0          0         
ISD011_damDOWN   27453            27450            400        0.011      0          0          0          0         
ISD011_damUP     27454            27450            400        0.01       0          0          0          0         
ISD012_damDOWN   25254            25251            310.84     0.01       0          0          0          0         
ISD012_damUP     25253            25251            400        0.011      0          0          0          0         
ISD013_damDOWN   23554            2351             400        0.01       0          0          0          0         
ISD013_damUP     23553            2351             400        0.011      0          0          0          0         
RC11535          RC11535          1535             32880      .013       0          0          0          0         
RC11545          RC11545          1545             37310      .013       0          0          0          0         
RC11550          RC11550          1550             13800      .013       0          0          0          0         
RC11570          RC11570          1570             35848      .013       0          0          0          0         
RC11571          RC11571          1570             51360      .013       0          0          0          0         
RC12200          RC12200          2200             44760      .013       0          0          0          0         
RC12201          RC12201          2200             5640       .013       0          0          0          0         
RC12315          RC12315          2315             37396      .013       0          0          0          0         
RC12345          RC12345          2455             28240      .013       0          0          0          0         
RC12350          RC12350          2350             40685      .013       0          0          0          0         
RC12355          RC12355          2360             51505      .013       0          0          0          0         
RC12389          RC12389          2389             35880      .013       0          0          0          0         
RC12397          RC12397          2389             24289      .016       0          0          0          0         
RC12520          RC12520          2525             27121      .013       0          0          0          0         
RC12521          RC12521          2545             6360       .013       0          0          0          0         
RC12765          RC12765          2765             21000      .013       0          0          0          0         
RC12770          RC12770          25250            7658       .013       0          0          0          0         
RC1951           RC1951           1952             43704      .013       0          0          0          0         
RC19523          RC19523          1515             18109      .013       0          0          0          0         
RC3214500        RC3214500        2145             12797      .013       0          0          0          0         
RC32160          RC32160          2160             20035      .013       0          0          0          0         
Trunk02          5                1                3000       0.01       0          0          0          0         